ethandial
  PyMOL2.5          3D                             0

 17 16  0  0  0  0  0  0  0  0999 V2000
   -0.0226    1.8106    1.0336 C   0  0  0  0  0  0  0  0  0  0  0  0
   -0.7084    2.0264    0.2144 H   0  0  0  0  0  0  0  0  0  0  0  0
   -0.0467    0.7437    1.2555 H   0  0  0  0  0  0  0  0  0  0  0  0
    1.3894    3.2243    0.2061 H   0  0  0  0  0  0  0  0  0  0  0  0
   -0.4187    2.5484    2.1928 O   0  0  0  0  0  0  0  0  0  0  0  0
    1.4056    2.2191    0.6274 C   0  0  0  0  0  0  0  0  0  0  0  0
   -0.3676    3.4889    2.0070 H   0  0  0  0  0  0  0  0  0  0  0  0
    2.0511    2.2029    1.5056 H   0  0  0  0  0  0  0  0  0  0  0  0
    0.0000    0.0000    0.0000 C   0  0  0  0  0  0  0  0  0  0  0  0
    1.4280    0.0000    0.0000 C   0  0  0  0  0  0  0  0  0  0  0  0
    1.7913   -0.2660    0.9927 H   0  0  0  0  0  0  0  0  0  0  0  0
    1.9040    1.3004   -0.3485 O   0  0  0  0  0  0  0  0  0  0  0  0
    1.7913   -0.7267   -0.7267 H   0  0  0  0  0  0  0  0  0  0  0  0
   -0.3633    0.7267    0.7267 H   0  0  0  0  0  0  0  0  0  0  0  0
   -0.4760   -1.3005    0.3484 O   0  0  0  0  0  0  0  0  0  0  0  0
   -0.1414   -1.5070    1.2242 H   0  0  0  0  0  0  0  0  0  0  0  0
   -0.3633    0.2660   -0.9926 H   0  0  0  0  0  0  0  0  0  0  0  0
  1  2  1  0  0  0  0
  1  3  1  0  0  0  0
  1  5  1  0  0  0  0
  5  7  1  0  0  0  0
  1  6  1  0  0  0  0
  4  6  1  0  0  0  0
  6  8  1  0  0  0  0
  9 10  1  0  0  0  0
  9 14  1  0  0  0  0
  9 15  1  0  0  0  0
  9 17  1  0  0  0  0
 10 11  1  0  0  0  0
 10 12  1  0  0  0  0
 10 13  1  0  0  0  0
  6 12  1  0  0  0  0
 15 16  1  0  0  0  0
M  END
$$$$
