8 arm-PEG-6C-PEI600-to DuJuan.mol
  PyMOL2.3          3D                             0

 26 25  0  0  0  0  0  0  0  0999 V2000
    0.7449    0.3984    1.6347 O   0  0  0  0  0  0  0  0  0  0  0  0
    1.2531    0.8009    2.9092 C   0  0  0  0  0  0  0  0  0  0  0  0
    0.5127   -0.5327    1.6617 H   0  0  0  0  0  0  0  0  0  0  0  0
    1.4688    4.1676   10.7265 O   0  0  0  0  0  0  0  0  0  0  0  0
    1.4449    3.4937    9.4988 C   0  0  0  0  0  0  0  0  0  0  0  0
    1.7109    4.2818    8.2732 C   0  0  0  0  0  0  0  0  0  0  0  0
    1.6109    3.3432    7.0773 C   0  0  0  0  0  0  0  0  0  0  0  0
    1.8769    4.1332    5.8338 C   0  0  0  0  0  0  0  0  0  0  0  0
    1.7874    3.3173    4.5714 C   0  0  0  0  0  0  0  0  0  0  0  0
    2.7871    2.1768    4.5323 C   0  0  0  0  0  0  0  0  0  0  0  0
    2.6146    1.4239    3.2293 C   0  0  0  0  0  0  0  0  0  0  0  0
    1.2074    2.2671    9.4358 O   0  0  0  0  0  0  0  0  0  0  0  0
    0.6125    0.7161    4.1754 O   0  0  0  0  0  0  0  0  0  0  0  0
    0.9222    3.7929   11.4997 H   0  0  0  0  0  0  0  0  0  0  0  0
    0.9993    5.1297    8.1467 H   0  0  0  0  0  0  0  0  0  0  0  0
    2.7195    4.6967    8.3135 H   0  0  0  0  0  0  0  0  0  0  0  0
    2.3967    2.5917    7.2035 H   0  0  0  0  0  0  0  0  0  0  0  0
    0.5741    2.9274    7.1022 H   0  0  0  0  0  0  0  0  0  0  0  0
    1.1364    4.9736    5.6944 H   0  0  0  0  0  0  0  0  0  0  0  0
    2.8832    4.6079    5.8568 H   0  0  0  0  0  0  0  0  0  0  0  0
    0.7328    2.9903    4.4866 H   0  0  0  0  0  0  0  0  0  0  0  0
    1.9725    3.9600    3.6996 H   0  0  0  0  0  0  0  0  0  0  0  0
    3.7969    2.6317    4.5179 H   0  0  0  0  0  0  0  0  0  0  0  0
    2.7293    1.5339    5.4254 H   0  0  0  0  0  0  0  0  0  0  0  0
    3.3151    0.5630    3.2014 H   0  0  0  0  0  0  0  0  0  0  0  0
    2.7515    2.1155    2.3918 H   0  0  0  0  0  0  0  0  0  0  0  0
  1  3  1  0  0  0  0
  1  2  1  0  0  0  0
  2 13  2  0  0  0  0
  4  5  1  0  0  0  0
  4 14  1  0  0  0  0
  5  6  1  0  0  0  0
  5 12  2  0  0  0  0
  6  7  1  0  0  0  0
  6 15  1  0  0  0  0
  6 16  1  0  0  0  0
  7  8  1  0  0  0  0
  7 17  1  0  0  0  0
  7 18  1  0  0  0  0
  8  9  1  0  0  0  0
  8 19  1  0  0  0  0
  8 20  1  0  0  0  0
  9 10  1  0  0  0  0
  9 21  1  0  0  0  0
  9 22  1  0  0  0  0
 10 11  1  0  0  0  0
 10 23  1  0  0  0  0
 10 24  1  0  0  0  0
  2 11  1  0  0  0  0
 11 25  1  0  0  0  0
 11 26  1  0  0  0  0
M  END
$$$$
