ligand_optimized.pdb
 OpenBabel03122514593D

193200  0  0  1  0  0  0  0  0999 V2000
    6.7460   -4.3480    0.7830 C   0  0  2  0  0  0  0  0  0  0  0  0
    7.5370   -4.0080    2.0640 C   0  0  2  0  0  0  0  0  0  0  0  0
    8.6010   -5.0060    2.2680 N   0  0  0  0  0  0  0  0  0  0  0  0
    6.5720   -3.8940    3.2620 C   0  0  1  0  0  0  0  0  0  0  0  0
    7.2210   -3.4160    4.4560 O   0  0  0  0  0  0  0  0  0  0  0  0
    5.4240   -2.9040    2.9720 C   0  0  2  0  0  0  0  0  0  0  0  0
    4.2850   -3.2690    3.7800 O   0  0  0  0  0  0  0  0  0  0  0  0
    4.9250   -2.9780    1.5170 C   0  0  2  0  0  0  0  0  0  0  0  0
    5.3440   -4.1960    0.8900 O   0  0  0  0  0  0  0  0  0  0  0  0
    5.2840   -1.7390    0.6770 C   0  0  0  0  0  0  0  0  0  0  0  0
    4.5680   -1.8500   -0.5600 O   0  0  0  0  0  0  0  0  0  0  0  0
    9.6800   -4.8360    3.0930 C   0  0  0  0  0  0  0  0  0  0  0  0
    9.8160   -3.8490    3.8040 O   0  0  0  0  0  0  0  0  0  0  0  0
   10.6690   -5.9660    3.0710 C   0  0  0  0  0  0  0  0  0  0  0  0
    4.1100   -2.5430    4.9930 C   0  0  1  0  0  0  0  0  0  0  0  0
    3.6640   -1.0630    4.7590 C   0  0  2  0  0  0  0  0  0  0  0  0
    4.1960   -0.1490    5.7740 N   0  0  0  0  0  0  0  0  0  0  0  0
    2.1270   -0.9480    4.6740 C   0  0  1  0  0  0  0  0  0  0  0  0
    1.7770    0.2120    3.9050 O   0  0  0  0  0  0  0  0  0  0  0  0
    1.5650   -2.2450    4.0610 C   0  0  2  0  0  0  0  0  0  0  0  0
    0.1740   -2.1120    3.7450 O   0  0  0  0  0  0  0  0  0  0  0  0
    1.8290   -3.3660    5.0940 C   0  0  2  0  0  0  0  0  0  0  0  0
    3.0970   -3.2150    5.7730 O   0  0  0  0  0  0  0  0  0  0  0  0
    1.7190   -4.7740    4.4850 C   0  0  0  0  0  0  0  0  0  0  0  0
    0.4140   -5.0210    3.9690 O   0  0  0  0  0  0  0  0  0  0  0  0
    5.4390    0.4310    5.6270 C   0  0  0  0  0  0  0  0  0  0  0  0
    6.1550    0.2540    4.6500 O   0  0  0  0  0  0  0  0  0  0  0  0
    5.8570    1.2880    6.7910 C   0  0  0  0  0  0  0  0  0  0  0  0
   -0.0290   -1.5190    2.4540 C   0  0  1  0  0  0  0  0  0  0  0  0
   -0.6640   -2.5440    1.4960 C   0  0  1  0  0  0  0  0  0  0  0  0
   -1.9360   -2.9760    2.0090 O   0  0  0  0  0  0  0  0  0  0  0  0
   -0.8030   -1.8420    0.1410 C   0  0  1  0  0  0  0  0  0  0  0  0
   -1.3840   -2.7170   -0.8410 O   0  0  0  0  0  0  0  0  0  0  0  0
   -1.6580   -0.5690    0.2590 C   0  0  2  0  0  0  0  0  0  0  0  0
   -1.5700    0.1220   -1.0030 O   0  0  0  0  0  0  0  0  0  0  0  0
   -1.1460    0.3200    1.4170 C   0  0  2  0  0  0  0  0  0  0  0  0
   -0.8850   -0.3900    2.6340 O   0  0  0  0  0  0  0  0  0  0  0  0
   -2.1560    1.4240    1.7680 C   0  0  0  0  0  0  0  0  0  0  0  0
   -2.5450    2.1430    0.6010 O   0  0  0  0  0  0  0  0  0  0  0  0
   -0.5160   -2.9200   -1.9600 C   0  0  2  0  0  0  0  0  0  0  0  0
   -1.3680   -3.0470   -3.2520 C   0  0  1  0  0  0  0  0  0  0  0  0
   -1.6100   -1.7270   -3.7790 O   0  0  0  0  0  0  0  0  0  0  0  0
   -0.5840   -3.8870   -4.2740 C   0  0  1  0  0  0  0  0  0  0  0  0
    0.6850   -3.2680   -4.5640 O   0  0  0  0  0  0  0  0  0  0  0  0
   -0.3590   -5.2970   -3.7110 C   0  0  2  0  0  0  0  0  0  0  0  0
   -1.4440   -6.1390   -4.1100 O   0  0  0  0  0  0  0  0  0  0  0  0
   -0.2880   -5.2700   -2.1590 C   0  0  2  0  0  0  0  0  0  0  0  0
    0.3200   -4.0590   -1.7030 O   0  0  0  0  0  0  0  0  0  0  0  0
    0.4940   -6.4770   -1.6390 C   0  0  0  0  0  0  0  0  0  0  0  0
   -0.1990   -7.6830   -1.9560 O   0  0  0  0  0  0  0  0  0  0  0  0
   -2.7520   -1.6560   -4.6300 C   0  0  1  0  0  0  0  0  0  0  0  0
   -3.8500   -0.7360   -4.0180 C   0  0  2  0  0  0  0  0  0  0  0  0
   -5.2050   -1.2700   -4.2780 N   0  0  0  0  0  0  0  0  0  0  0  0
   -3.7180    0.7160   -4.5320 C   0  0  1  0  0  0  0  0  0  0  0  0
   -4.1570    1.6740   -3.5520 O   0  0  0  0  0  0  0  0  0  0  0  0
   -2.2710    1.0330   -4.8860 C   0  0  2  0  0  0  0  0  0  0  0  0
   -2.1440    2.3940   -5.3280 O   0  0  0  0  0  0  0  0  0  0  0  0
   -1.7960    0.0890   -6.0000 C   0  0  2  0  0  0  0  0  0  0  0  0
   -2.3610   -1.2310   -5.9360 O   0  0  0  0  0  0  0  0  0  0  0  0
   -0.2590    0.0360   -6.0590 C   0  0  0  0  0  0  0  0  0  0  0  0
    0.3450    1.3090   -6.2610 O   0  0  0  0  0  0  0  0  0  0  0  0
   -6.3250   -0.7460   -3.6740 C   0  0  0  0  0  0  0  0  0  0  0  0
   -6.2760    0.2070   -2.9040 O   0  0  0  0  0  0  0  0  0  0  0  0
   -7.6240   -1.3940   -4.0690 C   0  0  0  0  0  0  0  0  0  0  0  0
   -2.9210    3.4790    0.8940 C   0  0  2  0  0  0  0  0  0  0  0  0
   -3.5980    4.1660   -0.3020 C   0  0  1  0  0  0  0  0  0  0  0  0
   -3.9960    5.4850    0.1270 O   0  0  0  0  0  0  0  0  0  0  0  0
   -2.6230    4.2880   -1.4840 C   0  0  1  0  0  0  0  0  0  0  0  0
   -2.9070    5.4640   -2.2590 O   0  0  0  0  0  0  0  0  0  0  0  0
   -1.1390    4.2540   -1.0770 C   0  0  2  0  0  0  0  0  0  0  0  0
   -0.6640    2.8970   -1.1920 O   0  0  0  0  0  0  0  0  0  0  0  0
   -0.8990    4.7400    0.3680 C   0  0  2  0  0  0  0  0  0  0  0  0
   -1.8110    4.2450    1.3680 O   0  0  0  0  0  0  0  0  0  0  0  0
   -0.8680    6.2730    0.4540 C   0  0  0  0  0  0  0  0  0  0  0  0
    0.2340    6.7960   -0.2800 O   0  0  0  0  0  0  0  0  0  0  0  0
   -5.4080    5.6900    0.2000 C   0  0  1  0  0  0  0  0  0  0  0  0
   -5.6630    6.6910    1.3550 C   0  0  2  0  0  0  0  0  0  0  0  0
   -5.2130    6.1310    2.6440 N   0  0  0  0  0  0  0  0  0  0  0  0
   -7.1550    7.0840    1.3620 C   0  0  1  0  0  0  0  0  0  0  0  0
   -7.4680    8.1630    2.2560 O   0  0  0  0  0  0  0  0  0  0  0  0
   -7.5850    7.5520   -0.0320 C   0  0  2  0  0  0  0  0  0  0  0  0
   -8.9850    7.8260   -0.0340 O   0  0  0  0  0  0  0  0  0  0  0  0
   -7.2220    6.5050   -1.0980 C   0  0  2  0  0  0  0  0  0  0  0  0
   -5.8200    6.2150   -1.0530 O   0  0  0  0  0  0  0  0  0  0  0  0
   -7.5770    7.0230   -2.5000 C   0  0  0  0  0  0  0  0  0  0  0  0
   -8.9820    7.0970   -2.6990 O   0  0  0  0  0  0  0  0  0  0  0  0
   -4.9090    6.9280    3.7190 C   0  0  0  0  0  0  0  0  0  0  0  0
   -5.2240    8.1130    3.7590 O   0  0  0  0  0  0  0  0  0  0  0  0
   -4.2090    6.2280    4.8480 C   0  0  0  0  0  0  0  0  0  0  0  0
    5.0180   -0.9500   -1.5710 C   0  0  1  0  0  0  0  0  0  0  0  0
    6.0000   -1.6500   -2.5200 C   0  0  1  0  0  0  0  0  0  0  0  0
    7.2490   -1.9970   -1.8950 O   0  0  0  0  0  0  0  0  0  0  0  0
    5.3480   -2.9160   -3.0910 C   0  0  2  0  0  0  0  0  0  0  0  0
    5.9410   -3.1820   -4.3760 O   0  0  0  0  0  0  0  0  0  0  0  0
    3.8160   -2.8090   -3.2040 C   0  0  2  0  0  0  0  0  0  0  0  0
    3.3830   -3.6180   -4.3070 O   0  0  0  0  0  0  0  0  0  0  0  0
    3.3350   -1.3450   -3.2850 C   0  0  1  0  0  0  0  0  0  0  0  0
    3.8770   -0.4670   -2.2870 O   0  0  0  0  0  0  0  0  0  0  0  0
    3.5460   -0.7120   -4.6600 C   0  0  0  0  0  0  0  0  0  0  0  0
    6.9360   -5.6770    0.5130 F   0  0  0  0  0  0  0  0  0  0  0  0
    7.1370   -3.8010   -0.0760 H   0  0  0  0  0  0  0  0  0  0  0  0
    8.0380   -3.0380    1.9450 H   0  0  0  0  0  0  0  0  0  0  0  0
    8.4560   -5.9110    1.8250 H   0  0  0  0  0  0  0  0  0  0  0  0
    6.1700   -4.8820    3.5170 H   0  0  0  0  0  0  0  0  0  0  0  0
    8.1920   -3.5160    4.3570 H   0  0  0  0  0  0  0  0  0  0  0  0
    5.7280   -1.8790    3.2070 H   0  0  0  0  0  0  0  0  0  0  0  0
    3.8290   -3.0380    1.5130 H   0  0  0  0  0  0  0  0  0  0  0  0
    6.3630   -1.6810    0.4920 H   0  0  0  0  0  0  0  0  0  0  0  0
    4.9580   -0.8200    1.1800 H   0  0  0  0  0  0  0  0  0  0  0  0
   11.6830   -5.5570    3.0200 H   0  0  0  0  0  0  0  0  0  0  0  0
   10.5210   -6.6130    2.2010 H   0  0  0  0  0  0  0  0  0  0  0  0
   10.5590   -6.5610    3.9800 H   0  0  0  0  0  0  0  0  0  0  0  0
    5.0360   -2.5800    5.5770 H   0  0  0  0  0  0  0  0  0  0  0  0
    4.0640   -0.7090    3.8030 H   0  0  0  0  0  0  0  0  0  0  0  0
    3.7710   -0.1370    6.6970 H   0  0  0  0  0  0  0  0  0  0  0  0
    1.6880   -0.7900    5.6690 H   0  0  0  0  0  0  0  0  0  0  0  0
    0.8020    0.2950    3.9660 H   0  0  0  0  0  0  0  0  0  0  0  0
    2.0970   -2.4850    3.1330 H   0  0  0  0  0  0  0  0  0  0  0  0
    1.0610   -3.2920    5.8750 H   0  0  0  0  0  0  0  0  0  0  0  0
    1.9360   -5.5270    5.2510 H   0  0  0  0  0  0  0  0  0  0  0  0
    2.4390   -4.9220    3.6720 H   0  0  0  0  0  0  0  0  0  0  0  0
    0.4030   -5.9400    3.6530 H   0  0  0  0  0  0  0  0  0  0  0  0
    6.3160    2.2040    6.4080 H   0  0  0  0  0  0  0  0  0  0  0  0
    6.5780    0.7390    7.3990 H   0  0  0  0  0  0  0  0  0  0  0  0
    5.0030    1.5720    7.4140 H   0  0  0  0  0  0  0  0  0  0  0  0
    0.9190   -1.1640    2.0300 H   0  0  0  0  0  0  0  0  0  0  0  0
   -0.0410   -3.4400    1.4120 H   0  0  0  0  0  0  0  0  0  0  0  0
   -1.7800   -3.1670    2.9560 H   0  0  0  0  0  0  0  0  0  0  0  0
    0.2050   -1.5430   -0.1750 H   0  0  0  0  0  0  0  0  0  0  0  0
   -2.7100   -0.8420    0.4120 H   0  0  0  0  0  0  0  0  0  0  0  0
   -1.7330    1.0800   -0.8360 H   0  0  0  0  0  0  0  0  0  0  0  0
   -0.2150    0.8140    1.0990 H   0  0  0  0  0  0  0  0  0  0  0  0
   -1.7020    2.0820    2.5200 H   0  0  0  0  0  0  0  0  0  0  0  0
   -3.0540    0.9940    2.2310 H   0  0  0  0  0  0  0  0  0  0  0  0
    0.1430   -2.0550   -2.0870 H   0  0  0  0  0  0  0  0  0  0  0  0
   -2.3310   -3.5150   -3.0000 H   0  0  0  0  0  0  0  0  0  0  0  0
   -1.1250   -3.9270   -5.2260 H   0  0  0  0  0  0  0  0  0  0  0  0
    0.5260   -2.3000   -4.5160 H   0  0  0  0  0  0  0  0  0  0  0  0
    0.5640   -5.7090   -4.1400 H   0  0  0  0  0  0  0  0  0  0  0  0
   -1.2300   -7.0350   -3.7820 H   0  0  0  0  0  0  0  0  0  0  0  0
   -1.3100   -5.3460   -1.7490 H   0  0  0  0  0  0  0  0  0  0  0  0
    1.4880   -6.5230   -2.1000 H   0  0  0  0  0  0  0  0  0  0  0  0
    0.6490   -6.4150   -0.5560 H   0  0  0  0  0  0  0  0  0  0  0  0
   -0.8000   -7.8900   -1.2160 H   0  0  0  0  0  0  0  0  0  0  0  0
   -3.1790   -2.6580   -4.7690 H   0  0  0  0  0  0  0  0  0  0  0  0
   -3.7490   -0.7450   -2.9260 H   0  0  0  0  0  0  0  0  0  0  0  0
   -5.3480   -1.7730   -5.1510 H   0  0  0  0  0  0  0  0  0  0  0  0
   -4.3530    0.8780   -5.4140 H   0  0  0  0  0  0  0  0  0  0  0  0
   -5.0140    1.3370   -3.2030 H   0  0  0  0  0  0  0  0  0  0  0  0
   -1.6470    0.9360   -3.9900 H   0  0  0  0  0  0  0  0  0  0  0  0
   -2.6170    2.9210   -4.6500 H   0  0  0  0  0  0  0  0  0  0  0  0
   -2.1280    0.5030   -6.9610 H   0  0  0  0  0  0  0  0  0  0  0  0
    0.1490   -0.3750   -5.1360 H   0  0  0  0  0  0  0  0  0  0  0  0
    0.0620   -0.6290   -6.8670 H   0  0  0  0  0  0  0  0  0  0  0  0
   -0.3560    1.9910   -6.2260 H   0  0  0  0  0  0  0  0  0  0  0  0
   -7.4580   -2.3510   -4.5710 H   0  0  0  0  0  0  0  0  0  0  0  0
   -8.1640   -0.7220   -4.7420 H   0  0  0  0  0  0  0  0  0  0  0  0
   -8.2150   -1.5780   -3.1670 H   0  0  0  0  0  0  0  0  0  0  0  0
   -3.6450    3.4550    1.7180 H   0  0  0  0  0  0  0  0  0  0  0  0
   -4.4670    3.5830   -0.6330 H   0  0  0  0  0  0  0  0  0  0  0  0
   -2.8030    3.4370   -2.1500 H   0  0  0  0  0  0  0  0  0  0  0  0
   -3.6000    5.9620   -1.7730 H   0  0  0  0  0  0  0  0  0  0  0  0
   -0.5490    4.8440   -1.7840 H   0  0  0  0  0  0  0  0  0  0  0  0
    0.2510    2.9500   -1.5270 H   0  0  0  0  0  0  0  0  0  0  0  0
    0.0900    4.3770    0.6780 H   0  0  0  0  0  0  0  0  0  0  0  0
   -0.7650    6.5970    1.4970 H   0  0  0  0  0  0  0  0  0  0  0  0
   -1.7860    6.7160    0.0650 H   0  0  0  0  0  0  0  0  0  0  0  0
    0.0970    7.7540   -0.3490 H   0  0  0  0  0  0  0  0  0  0  0  0
   -5.9280    4.7440    0.4090 H   0  0  0  0  0  0  0  0  0  0  0  0
   -5.0640    7.5960    1.1910 H   0  0  0  0  0  0  0  0  0  0  0  0
   -4.8410    5.1880    2.6440 H   0  0  0  0  0  0  0  0  0  0  0  0
   -7.7700    6.2320    1.6810 H   0  0  0  0  0  0  0  0  0  0  0  0
   -6.7390    8.2510    2.9100 H   0  0  0  0  0  0  0  0  0  0  0  0
   -7.0760    8.4960   -0.2560 H   0  0  0  0  0  0  0  0  0  0  0  0
   -9.1300    8.3670    0.7760 H   0  0  0  0  0  0  0  0  0  0  0  0
   -7.7900    5.5830   -0.9210 H   0  0  0  0  0  0  0  0  0  0  0  0
   -7.1420    8.0130   -2.6760 H   0  0  0  0  0  0  0  0  0  0  0  0
   -7.1610    6.3570   -3.2630 H   0  0  0  0  0  0  0  0  0  0  0  0
   -9.3730    7.4620   -1.8740 H   0  0  0  0  0  0  0  0  0  0  0  0
   -3.6890    5.3310    4.4960 H   0  0  0  0  0  0  0  0  0  0  0  0
   -3.4620    6.9010    5.2770 H   0  0  0  0  0  0  0  0  0  0  0  0
   -4.9380    5.9470    5.6110 H   0  0  0  0  0  0  0  0  0  0  0  0
    5.4980   -0.0800   -1.1040 H   0  0  0  0  0  0  0  0  0  0  0  0
    6.2590   -0.9670   -3.3350 H   0  0  0  0  0  0  0  0  0  0  0  0
    7.7270   -2.5120   -2.5730 H   0  0  0  0  0  0  0  0  0  0  0  0
    5.5940   -3.7910   -2.4790 H   0  0  0  0  0  0  0  0  0  0  0  0
    5.2510   -3.6930   -4.8520 H   0  0  0  0  0  0  0  0  0  0  0  0
    3.3830   -3.2490   -2.2970 H   0  0  0  0  0  0  0  0  0  0  0  0
    2.4030   -3.5700   -4.3460 H   0  0  0  0  0  0  0  0  0  0  0  0
    2.2490   -1.3450   -3.1220 H   0  0  0  0  0  0  0  0  0  0  0  0
    3.0240   -1.2690   -5.4430 H   0  0  0  0  0  0  0  0  0  0  0  0
    3.1780    0.3180   -4.6650 H   0  0  0  0  0  0  0  0  0  0  0  0
    4.6060   -0.6650   -4.9250 H   0  0  0  0  0  0  0  0  0  0  0  0
  1  2  1  0  0  0  0
  1  9  1  0  0  0  0
  1100  1  0  0  0  0
  1101  1  6  0  0  0
  2  3  1  0  0  0  0
  2  4  1  0  0  0  0
  2102  1  6  0  0  0
  3 12  1  0  0  0  0
  3103  1  0  0  0  0
  4  5  1  0  0  0  0
  4  6  1  0  0  0  0
  4104  1  1  0  0  0
  5105  1  0  0  0  0
  6  7  1  0  0  0  0
  6  8  1  0  0  0  0
  6106  1  1  0  0  0
  7 15  1  0  0  0  0
  8  9  1  0  0  0  0
  8 10  1  0  0  0  0
  8107  1  1  0  0  0
 10 11  1  0  0  0  0
 10108  1  0  0  0  0
 10109  1  0  0  0  0
 11 90  1  0  0  0  0
 12 13  2  0  0  0  0
 12 14  1  0  0  0  0
 14110  1  0  0  0  0
 14111  1  0  0  0  0
 14112  1  0  0  0  0
 15 16  1  0  0  0  0
 15 23  1  0  0  0  0
 15113  1  1  0  0  0
 16 17  1  0  0  0  0
 16 18  1  0  0  0  0
 16114  1  6  0  0  0
 17 26  1  0  0  0  0
 17115  1  0  0  0  0
 18 19  1  0  0  0  0
 18 20  1  0  0  0  0
 18116  1  1  0  0  0
 19117  1  0  0  0  0
 20 21  1  0  0  0  0
 20 22  1  0  0  0  0
 20118  1  6  0  0  0
 21 29  1  0  0  0  0
 22 23  1  0  0  0  0
 22 24  1  0  0  0  0
 22119  1  1  0  0  0
 24 25  1  0  0  0  0
 24120  1  0  0  0  0
 24121  1  0  0  0  0
 25122  1  0  0  0  0
 26 27  2  0  0  0  0
 26 28  1  0  0  0  0
 28123  1  0  0  0  0
 28124  1  0  0  0  0
 28125  1  0  0  0  0
 29 30  1  0  0  0  0
 29 37  1  0  0  0  0
 29126  1  6  0  0  0
 30 31  1  0  0  0  0
 30 32  1  0  0  0  0
 30127  1  6  0  0  0
 31128  1  0  0  0  0
 32 33  1  0  0  0  0
 32 34  1  0  0  0  0
 32129  1  6  0  0  0
 33 40  1  0  0  0  0
 34 35  1  0  0  0  0
 34 36  1  0  0  0  0
 34130  1  1  0  0  0
 35131  1  0  0  0  0
 36 37  1  0  0  0  0
 36 38  1  0  0  0  0
 36132  1  6  0  0  0
 38 39  1  0  0  0  0
 38133  1  0  0  0  0
 38134  1  0  0  0  0
 39 65  1  0  0  0  0
 40 41  1  0  0  0  0
 40 48  1  0  0  0  0
 40135  1  6  0  0  0
 41 42  1  0  0  0  0
 41 43  1  0  0  0  0
 41136  1  1  0  0  0
 42 51  1  0  0  0  0
 43 44  1  0  0  0  0
 43 45  1  0  0  0  0
 43137  1  6  0  0  0
 44138  1  0  0  0  0
 45 46  1  0  0  0  0
 45 47  1  0  0  0  0
 45139  1  6  0  0  0
 46140  1  0  0  0  0
 47 48  1  0  0  0  0
 47 49  1  0  0  0  0
 47141  1  1  0  0  0
 49 50  1  0  0  0  0
 49142  1  0  0  0  0
 49143  1  0  0  0  0
 50144  1  0  0  0  0
 51 52  1  0  0  0  0
 51 59  1  0  0  0  0
 51145  1  6  0  0  0
 52 53  1  0  0  0  0
 52 54  1  0  0  0  0
 52146  1  1  0  0  0
 53 62  1  0  0  0  0
 53147  1  0  0  0  0
 54 55  1  0  0  0  0
 54 56  1  0  0  0  0
 54148  1  6  0  0  0
 55149  1  0  0  0  0
 56 57  1  0  0  0  0
 56 58  1  0  0  0  0
 56150  1  1  0  0  0
 57151  1  0  0  0  0
 58 59  1  0  0  0  0
 58 60  1  0  0  0  0
 58152  1  6  0  0  0
 60 61  1  0  0  0  0
 60153  1  0  0  0  0
 60154  1  0  0  0  0
 61155  1  0  0  0  0
 62 63  2  0  0  0  0
 62 64  1  0  0  0  0
 64156  1  0  0  0  0
 64157  1  0  0  0  0
 64158  1  0  0  0  0
 65 66  1  0  0  0  0
 65 73  1  0  0  0  0
 65159  1  1  0  0  0
 66 67  1  0  0  0  0
 66 68  1  0  0  0  0
 66160  1  6  0  0  0
 67 76  1  0  0  0  0
 68 69  1  0  0  0  0
 68 70  1  0  0  0  0
 68161  1  6  0  0  0
 69162  1  0  0  0  0
 70 71  1  0  0  0  0
 70 72  1  0  0  0  0
 70163  1  6  0  0  0
 71164  1  0  0  0  0
 72 73  1  0  0  0  0
 72 74  1  0  0  0  0
 72165  1  1  0  0  0
 74 75  1  0  0  0  0
 74166  1  0  0  0  0
 74167  1  0  0  0  0
 75168  1  0  0  0  0
 76 77  1  0  0  0  0
 76 84  1  0  0  0  0
 76169  1  1  0  0  0
 77 78  1  0  0  0  0
 77 79  1  0  0  0  0
 77170  1  6  0  0  0
 78 87  1  0  0  0  0
 78171  1  0  0  0  0
 79 80  1  0  0  0  0
 79 81  1  0  0  0  0
 79172  1  1  0  0  0
 80173  1  0  0  0  0
 81 82  1  0  0  0  0
 81 83  1  0  0  0  0
 81174  1  6  0  0  0
 82175  1  0  0  0  0
 83 84  1  0  0  0  0
 83 85  1  0  0  0  0
 83176  1  1  0  0  0
 85 86  1  0  0  0  0
 85177  1  0  0  0  0
 85178  1  0  0  0  0
 86179  1  0  0  0  0
 87 88  2  0  0  0  0
 87 89  1  0  0  0  0
 89180  1  0  0  0  0
 89181  1  0  0  0  0
 89182  1  0  0  0  0
 90 91  1  0  0  0  0
 90 98  1  0  0  0  0
 90183  1  1  0  0  0
 91 92  1  0  0  0  0
 91 93  1  0  0  0  0
 91184  1  6  0  0  0
 92185  1  0  0  0  0
 93 94  1  0  0  0  0
 93 95  1  0  0  0  0
 93186  1  1  0  0  0
 94187  1  0  0  0  0
 95 96  1  0  0  0  0
 95 97  1  0  0  0  0
 95188  1  1  0  0  0
 96189  1  0  0  0  0
 97 98  1  0  0  0  0
 97 99  1  0  0  0  0
 97190  1  1  0  0  0
 99191  1  0  0  0  0
 99192  1  0  0  0  0
 99193  1  0  0  0  0
M  END
>  <COMPND>
    ligand.pdb

$$$$
