ASN-NAG_NAG_optimized.pdb
 OpenBabel02272519273D

 29 29  0  0  1  0  0  0  0  0999 V2000
   -0.2380    0.7240   -1.3320 C   0  0  2  0  0  0  0  0  0  0  0  0
    0.6520    0.6630   -0.0700 C   0  0  2  0  0  0  0  0  0  0  0  0
    1.9620    0.0810   -0.3880 N   0  0  0  0  0  0  0  0  0  0  0  0
   -0.0300   -0.1630    1.0550 C   0  0  1  0  0  0  0  0  0  0  0  0
    0.2070    0.4140    2.3150 O   0  0  0  0  0  0  0  0  0  0  0  0
   -1.5410   -0.3270    0.7960 C   0  0  2  0  0  0  0  0  0  0  0  0
   -2.1110   -1.1670    1.7670 O   0  0  0  0  0  0  0  0  0  0  0  0
   -1.7500   -0.9500   -0.6160 C   0  0  2  0  0  0  0  0  0  0  0  0
   -0.8080   -0.5420   -1.6070 O   0  0  0  0  0  0  0  0  0  0  0  0
   -3.1860   -0.7620   -1.1340 C   0  0  0  0  0  0  0  0  0  0  0  0
   -3.4430    0.5810   -1.4480 O   0  0  0  0  0  0  0  0  0  0  0  0
    3.1120    0.2820    0.4450 C   0  0  0  0  0  0  0  0  0  0  0  0
    3.0460    1.0330    1.4570 O   0  0  0  0  0  0  0  0  0  0  0  0
    4.4070   -0.3780    0.0990 C   0  0  0  0  0  0  0  0  0  0  0  0
    0.5100    1.1290   -2.4240 F   0  0  0  0  0  0  0  0  0  0  0  0
   -1.0360    1.4880   -1.1950 H   0  0  0  0  0  0  0  0  0  0  0  0
    0.8000    1.7160    0.2600 H   0  0  0  0  0  0  0  0  0  0  0  0
    2.0620   -0.5340   -1.2280 H   0  0  0  0  0  0  0  0  0  0  0  0
    0.4100   -1.1860    1.0680 H   0  0  0  0  0  0  0  0  0  0  0  0
   -0.2400    1.3010    2.3290 H   0  0  0  0  0  0  0  0  0  0  0  0
   -2.0250    0.6770    0.8370 H   0  0  0  0  0  0  0  0  0  0  0  0
   -2.2550   -0.6150    2.5790 H   0  0  0  0  0  0  0  0  0  0  0  0
   -1.6070   -2.0480   -0.4980 H   0  0  0  0  0  0  0  0  0  0  0  0
   -3.3130   -1.3660   -2.0580 H   0  0  0  0  0  0  0  0  0  0  0  0
   -3.9190   -1.1490   -0.3880 H   0  0  0  0  0  0  0  0  0  0  0  0
   -3.8660    0.9910   -0.6490 H   0  0  0  0  0  0  0  0  0  0  0  0
    4.2410   -1.4630   -0.0630 H   0  0  0  0  0  0  0  0  0  0  0  0
    5.1440   -0.2470    0.9200 H   0  0  0  0  0  0  0  0  0  0  0  0
    4.8150    0.0730   -0.8290 H   0  0  0  0  0  0  0  0  0  0  0  0
  1  2  1  0  0  0  0
  1  9  1  0  0  0  0
  1 15  1  0  0  0  0
  1 16  1  1  0  0  0
  2  3  1  0  0  0  0
  2  4  1  0  0  0  0
  2 17  1  1  0  0  0
  3 12  1  0  0  0  0
  3 18  1  0  0  0  0
  4  5  1  0  0  0  0
  4  6  1  0  0  0  0
  4 19  1  1  0  0  0
  5 20  1  0  0  0  0
  6  7  1  0  0  0  0
  6  8  1  0  0  0  0
  6 21  1  1  0  0  0
  7 22  1  0  0  0  0
  8  9  1  0  0  0  0
  8 10  1  0  0  0  0
  8 23  1  1  0  0  0
 10 11  1  0  0  0  0
 10 24  1  0  0  0  0
 10 25  1  0  0  0  0
 11 26  1  0  0  0  0
 12 13  2  0  0  0  0
 12 14  1  0  0  0  0
 14 27  1  0  0  0  0
 14 28  1  0  0  0  0
 14 29  1  0  0  0  0
M  END
>  <COMPND>
    ASN-NAG_NAG.pdb

$$$$
