c8diamine
     RDKit          3D

 30 29  0  0  0  0  0  0  0  0999 V2000
    5.1618    0.3893   -0.1831 N   0  0  0  0  0  0  0  0  0  0  0  0
    3.8416   -0.0409    0.2663 C   0  0  0  0  0  0  0  0  0  0  0  0
    2.7595    0.8470   -0.3475 C   0  0  0  0  0  0  0  0  0  0  0  0
    1.3476    0.5149    0.1491 C   0  0  0  0  0  0  0  0  0  0  0  0
    0.8427   -0.8499   -0.3268 C   0  0  0  0  0  0  0  0  0  0  0  0
   -0.5634   -1.1889    0.1797 C   0  0  0  0  0  0  0  0  0  0  0  0
   -1.6564   -0.2863   -0.3989 C   0  0  0  0  0  0  0  0  0  0  0  0
   -3.0484   -0.7543    0.0403 C   0  0  0  0  0  0  0  0  0  0  0  0
   -4.1798    0.0830   -0.5589 C   0  0  0  0  0  0  0  0  0  0  0  0
   -4.1399    1.4645   -0.0949 N   0  0  0  0  0  0  0  0  0  0  0  0
    5.8752   -0.1735    0.2782 H   0  0  0  0  0  0  0  0  0  0  0  0
    5.3258    1.3524    0.1072 H   0  0  0  0  0  0  0  0  0  0  0  0
    3.7974    0.0084    1.3597 H   0  0  0  0  0  0  0  0  0  0  0  0
    3.7001   -1.0846   -0.0289 H   0  0  0  0  0  0  0  0  0  0  0  0
    2.9674    1.8951   -0.0954 H   0  0  0  0  0  0  0  0  0  0  0  0
    2.7897    0.7747   -1.4421 H   0  0  0  0  0  0  0  0  0  0  0  0
    0.6766    1.3004   -0.2162 H   0  0  0  0  0  0  0  0  0  0  0  0
    1.3227    0.5599    1.2445 H   0  0  0  0  0  0  0  0  0  0  0  0
    1.5190   -1.6354    0.0282 H   0  0  0  0  0  0  0  0  0  0  0  0
    0.8581   -0.8897   -1.4226 H   0  0  0  0  0  0  0  0  0  0  0  0
   -0.5822   -1.1382    1.2752 H   0  0  0  0  0  0  0  0  0  0  0  0
   -0.7798   -2.2298   -0.0916 H   0  0  0  0  0  0  0  0  0  0  0  0
   -1.5972   -0.2934   -1.4938 H   0  0  0  0  0  0  0  0  0  0  0  0
   -1.4969    0.7457   -0.0696 H   0  0  0  0  0  0  0  0  0  0  0  0
   -3.1151   -0.7392    1.1355 H   0  0  0  0  0  0  0  0  0  0  0  0
   -3.1918   -1.7971   -0.2689 H   0  0  0  0  0  0  0  0  0  0  0  0
   -5.1422   -0.3591   -0.2786 H   0  0  0  0  0  0  0  0  0  0  0  0
   -4.1183    0.0676   -1.6524 H   0  0  0  0  0  0  0  0  0  0  0  0
   -4.2302    1.4882    0.9199 H   0  0  0  0  0  0  0  0  0  0  0  0
   -4.9437    1.9693   -0.4660 H   0  0  0  0  0  0  0  0  0  0  0  0
  1  2  1  0
  2  3  1  0
  3  4  1  0
  4  5  1  0
  5  6  1  0
  6  7  1  0
  7  8  1  0
  8  9  1  0
  9 10  1  0
  1 11  1  0
  1 12  1  0
  2 13  1  0
  2 14  1  0
  3 15  1  0
  3 16  1  0
  4 17  1  0
  4 18  1  0
  5 19  1  0
  5 20  1  0
  6 21  1  0
  6 22  1  0
  7 23  1  0
  7 24  1  0
  8 25  1  0
  8 26  1  0
  9 27  1  0
  9 28  1  0
 10 29  1  0
 10 30  1  0
M  END
