dBET23
     RDKit          3D

 62 68  0  0  0  0  0  0  0  0999 V2000
   -6.1407   -2.3752   -1.0975 C   0  0  0  0  0  0  0  0  0  0  0  0
   -5.3088   -1.5136   -0.1922 C   0  0  0  0  0  0  0  0  0  0  0  0
   -5.8131   -0.8183    0.9897 C   0  0  0  0  0  0  0  0  0  0  0  0
   -4.8122   -0.0393    1.5487 C   0  0  0  0  0  0  0  0  0  0  0  0
   -3.2936   -0.3047    0.8682 S   0  0  0  0  0  0  0  0  0  0  0  0
   -3.9399   -1.3161   -0.3436 C   0  0  0  0  0  0  0  0  0  0  0  0
   -3.0217   -1.8397   -1.3413 C   0  0  0  0  0  0  0  0  0  0  0  0
   -2.0188   -2.4875   -1.0608 O   0  0  0  0  0  0  0  0  0  0  0  0
   -3.3645   -1.5157   -2.6373 N   0  0  0  0  0  0  0  0  0  0  0  0
   -2.5440   -1.8656   -3.7790 C   0  0  0  0  0  0  0  0  0  0  0  0
   -1.7788   -0.6614   -4.3283 C   0  0  0  0  0  0  0  0  0  0  0  0
   -0.6784   -0.1161   -3.4110 C   0  0  0  0  0  0  0  0  0  0  0  0
    0.4784   -1.0782   -3.1200 C   0  0  0  0  0  0  0  0  0  0  0  0
    1.2291   -1.6042   -4.3472 C   0  0  0  0  0  0  0  0  0  0  0  0
    1.8383   -0.5343   -5.2587 C   0  0  0  0  0  0  0  0  0  0  0  0
    2.8163    0.4310   -4.5838 C   0  0  0  0  0  0  0  0  0  0  0  0
    4.0307   -0.2654   -3.9736 C   0  0  0  0  0  0  0  0  0  0  0  0
    4.9665    0.6919   -3.4249 N   0  0  0  0  0  0  0  0  0  0  0  0
    5.9325    1.3100   -4.1901 C   0  0  0  0  0  0  0  0  0  0  0  0
    6.0969    1.0964   -5.3877 O   0  0  0  0  0  0  0  0  0  0  0  0
    6.7736    2.3277   -3.4187 C   0  0  0  0  0  0  0  0  0  0  0  0
    7.0296    1.9492   -2.0725 O   0  0  0  0  0  0  0  0  0  0  0  0
    7.9907    1.0167   -1.8257 C   0  0  0  0  0  0  0  0  0  0  0  0
    8.7970    0.3852   -2.7831 C   0  0  0  0  0  0  0  0  0  0  0  0
    9.7752   -0.5620   -2.4061 C   0  0  0  0  0  0  0  0  0  0  0  0
    9.9673   -0.8999   -1.0667 C   0  0  0  0  0  0  0  0  0  0  0  0
    9.1555   -0.2757   -0.1416 C   0  0  0  0  0  0  0  0  0  0  0  0
    8.1936    0.6526   -0.5040 C   0  0  0  0  0  0  0  0  0  0  0  0
    7.5288    1.0833    0.7311 C   0  0  0  0  0  0  0  0  0  0  0  0
    6.6203    1.8894    0.8039 O   0  0  0  0  0  0  0  0  0  0  0  0
    8.1090    0.3846    1.7584 N   0  0  0  0  0  0  0  0  0  0  0  0
    9.1180   -0.4197    1.3107 C   0  0  0  0  0  0  0  0  0  0  0  0
    9.8782   -1.1250    1.9454 O   0  0  0  0  0  0  0  0  0  0  0  0
    7.8106    0.6494    3.1578 C   0  0  1  0  0  0  0  0  0  0  0  0
    7.6570   -0.6038    4.0153 C   0  0  0  0  0  0  0  0  0  0  0  0
    7.3124   -0.1955    5.4400 C   0  0  0  0  0  0  0  0  0  0  0  0
    8.3524    0.7424    6.0087 C   0  0  0  0  0  0  0  0  0  0  0  0
    8.5883    0.8078    7.2114 O   0  0  0  0  0  0  0  0  0  0  0  0
    8.9893    1.5686    5.1161 N   0  0  0  0  0  0  0  0  0  0  0  0
    8.8962    1.5594    3.7420 C   0  0  0  0  0  0  0  0  0  0  0  0
    9.6157    2.2909    3.0644 O   0  0  0  0  0  0  0  0  0  0  0  0
   -4.9780    0.9256    2.5489 N   0  0  0  0  0  0  0  0  0  0  0  0
   -4.1086    1.4705    3.4858 C   0  0  0  0  0  0  0  0  0  0  0  0
   -4.7493    2.3656    4.2121 N   0  0  0  0  0  0  0  0  0  0  0  0
   -6.0338    2.4485    3.7633 N   0  0  0  0  0  0  0  0  0  0  0  0
   -6.1650    1.6080    2.7608 C   0  0  0  0  0  0  0  0  0  0  0  0
   -7.3439    1.4403    1.8524 C   0  0  1  0  0  0  0  0  0  0  0  0
   -7.8644    0.0725    1.9567 N   0  0  0  0  0  0  0  0  0  0  0  0
   -7.1655   -0.9369    1.5642 C   0  0  0  0  0  0  0  0  0  0  0  0
   -7.7460   -2.3032    1.7466 C   0  0  0  0  0  0  0  0  0  0  0  0
   -6.9390   -3.4025    2.0727 C   0  0  0  0  0  0  0  0  0  0  0  0
   -7.5136   -4.6650    2.2479 C   0  0  0  0  0  0  0  0  0  0  0  0
   -8.8917   -4.8268    2.1106 C   0  0  0  0  0  0  0  0  0  0  0  0
   -9.7042   -3.7359    1.8067 C   0  0  0  0  0  0  0  0  0  0  0  0
   -9.1331   -2.4728    1.6306 C   0  0  0  0  0  0  0  0  0  0  0  0
   -9.5940   -6.3819    2.3243 Cl  0  0  0  0  0  0  0  0  0  0  0  0
   -8.4851    2.3918    2.2209 C   0  0  0  0  0  0  0  0  0  0  0  0
   -8.1276    3.8091    1.8582 C   0  0  0  0  0  0  0  0  0  0  0  0
   -7.4200    4.1264    0.9101 O   0  0  0  0  0  0  0  0  0  0  0  0
   -8.7593    4.6818    2.6912 O   0  0  0  0  0  0  0  0  0  0  0  0
   -8.4524    6.0527    2.4383 C   0  0  0  0  0  0  0  0  0  0  0  0
   -2.7034    1.0668    3.7261 C   0  0  0  0  0  0  0  0  0  0  0  0
  1  2  1  0
  2  3  1  0
  3  4  2  0
  4  5  1  0
  5  6  1  0
  6  7  1  0
  7  8  2  0
  7  9  1  0
  9 10  1  0
 10 11  1  0
 11 12  1  0
 12 13  1  0
 13 14  1  0
 14 15  1  0
 15 16  1  0
 16 17  1  0
 17 18  1  0
 18 19  1  0
 19 20  2  0
 19 21  1  0
 21 22  1  0
 22 23  1  0
 23 24  2  0
 24 25  1  0
 25 26  2  0
 26 27  1  0
 27 28  2  0
 28 29  1  0
 29 30  2  0
 29 31  1  0
 31 32  1  0
 32 33  2  0
 34 31  1  6
 34 35  1  0
 35 36  1  0
 36 37  1  0
 37 38  2  0
 37 39  1  0
 39 40  1  0
 40 41  2  0
  4 42  1  0
 42 43  1  0
 43 44  2  0
 44 45  1  0
 45 46  2  0
 46 47  1  0
 47 48  1  0
 48 49  2  0
 49 50  1  0
 50 51  2  0
 51 52  1  0
 52 53  2  0
 53 54  1  0
 54 55  2  0
 53 56  1  0
 47 57  1  1
 57 58  1  0
 58 59  2  0
 58 60  1  0
 60 61  1  0
 43 62  1  0
  6  2  2  0
 49  3  1  0
 28 23  1  0
 32 27  1  0
 40 34  1  0
 46 42  1  0
 55 50  1  0
M  END
