jq1
     RDKit          3D

 46 49  0  0  0  0  0  0  0  0999 V2000
   -2.2504   -0.6303   -1.5364 C   0  0  0  0  0  0  0  0  0  0  0  0
   -1.1883    0.3774   -1.1996 C   0  0  0  0  0  0  0  0  0  0  0  0
   -0.2976    0.2949   -0.0390 C   0  0  0  0  0  0  0  0  0  0  0  0
    0.6928    1.2557   -0.1350 C   0  0  0  0  0  0  0  0  0  0  0  0
    0.4186    2.3677   -1.3778 S   0  0  0  0  0  0  0  0  0  0  0  0
   -0.9185    1.5003   -1.9702 C   0  0  0  0  0  0  0  0  0  0  0  0
   -1.5971    1.9766   -3.1622 C   0  0  0  0  0  0  0  0  0  0  0  0
   -1.2915    2.9677   -3.8218 O   0  0  0  0  0  0  0  0  0  0  0  0
    1.8680    1.3424    0.6210 N   0  0  0  0  0  0  0  0  0  0  0  0
    2.7372    2.4068    0.8607 C   0  0  0  0  0  0  0  0  0  0  0  0
    3.7720    1.9878    1.5588 N   0  0  0  0  0  0  0  0  0  0  0  0
    3.6066    0.6651    1.8162 N   0  0  0  0  0  0  0  0  0  0  0  0
    2.4712    0.2779    1.2731 C   0  0  0  0  0  0  0  0  0  0  0  0
    1.9675   -1.1227    1.3092 C   0  0  1  0  0  0  0  0  0  0  0  0
    0.5533   -1.2719    1.6179 N   0  0  0  0  0  0  0  0  0  0  0  0
   -0.4263   -0.6612    1.0653 C   0  0  0  0  0  0  0  0  0  0  0  0
   -1.7905   -0.9211    1.6195 C   0  0  0  0  0  0  0  0  0  0  0  0
   -2.7135    0.1206    1.7894 C   0  0  0  0  0  0  0  0  0  0  0  0
   -3.9769   -0.1477    2.3237 C   0  0  0  0  0  0  0  0  0  0  0  0
   -4.3116   -1.4492    2.6973 C   0  0  0  0  0  0  0  0  0  0  0  0
   -3.3920   -2.4865    2.5496 C   0  0  0  0  0  0  0  0  0  0  0  0
   -2.1278   -2.2222    2.0170 C   0  0  0  0  0  0  0  0  0  0  0  0
   -5.8689   -1.7747    3.3506 Cl  0  0  0  0  0  0  0  0  0  0  0  0
    2.4561   -2.0443    0.2021 C   0  0  0  0  0  0  0  0  0  0  0  0
    1.9830   -1.7051   -1.1816 C   0  0  0  0  0  0  0  0  0  0  0  0
    0.9758   -2.1704   -1.6996 O   0  0  0  0  0  0  0  0  0  0  0  0
    2.8354   -0.8285   -1.7777 O   0  0  0  0  0  0  0  0  0  0  0  0
    2.5218   -0.5256   -3.1383 C   0  0  0  0  0  0  0  0  0  0  0  0
    2.5341    3.8270    0.4853 C   0  0  0  0  0  0  0  0  0  0  0  0
   -3.2271   -0.2900   -1.1798 H   0  0  0  0  0  0  0  0  0  0  0  0
   -2.0310   -1.6087   -1.0998 H   0  0  0  0  0  0  0  0  0  0  0  0
   -2.3131   -0.7831   -2.6189 H   0  0  0  0  0  0  0  0  0  0  0  0
   -2.4665    1.3769   -3.4800 H   0  0  0  0  0  0  0  0  0  0  0  0
    2.4522   -1.5333    2.2090 H   0  0  0  0  0  0  0  0  0  0  0  0
   -2.4594    1.1441    1.5252 H   0  0  0  0  0  0  0  0  0  0  0  0
   -4.6913    0.6616    2.4544 H   0  0  0  0  0  0  0  0  0  0  0  0
   -3.6489   -3.4989    2.8512 H   0  0  0  0  0  0  0  0  0  0  0  0
   -1.4096   -3.0330    1.9108 H   0  0  0  0  0  0  0  0  0  0  0  0
    3.5537   -2.0765    0.1844 H   0  0  0  0  0  0  0  0  0  0  0  0
    2.1366   -3.0753    0.4027 H   0  0  0  0  0  0  0  0  0  0  0  0
    2.7137   -1.3998   -3.7675 H   0  0  0  0  0  0  0  0  0  0  0  0
    1.4835   -0.1984   -3.2439 H   0  0  0  0  0  0  0  0  0  0  0  0
    3.1750    0.2889   -3.4630 H   0  0  0  0  0  0  0  0  0  0  0  0
    3.2202    4.4645    1.0540 H   0  0  0  0  0  0  0  0  0  0  0  0
    2.7492    3.9894   -0.5745 H   0  0  0  0  0  0  0  0  0  0  0  0
    1.5203    4.1651    0.7182 H   0  0  0  0  0  0  0  0  0  0  0  0
  1  2  1  0
  2  3  1  0
  3  4  2  0
  4  5  1  0
  5  6  1  0
  6  7  1  0
  7  8  2  0
  4  9  1  0
  9 10  1  0
 10 11  2  0
 11 12  1  0
 12 13  2  0
 13 14  1  0
 14 15  1  0
 15 16  2  0
 16 17  1  0
 17 18  2  0
 18 19  1  0
 19 20  2  0
 20 21  1  0
 21 22  2  0
 20 23  1  0
 14 24  1  0
 24 25  1  0
 25 26  2  0
 25 27  1  0
 27 28  1  0
 10 29  1  0
  6  2  2  0
 13  9  1  0
 22 17  1  0
 16  3  1  0
  1 30  1  0
  1 31  1  0
  1 32  1  0
  7 33  1  0
 14 34  1  1
 18 35  1  0
 19 36  1  0
 21 37  1  0
 22 38  1  0
 24 39  1  0
 24 40  1  0
 28 41  1  0
 28 42  1  0
 28 43  1  0
 29 44  1  0
 29 45  1  0
 29 46  1  0
M  END
