thal
     RDKit          3D

 35 37  0  0  0  0  0  0  0  0999 V2000
    6.3806    0.9827   -0.1068 O   0  0  0  0  0  0  0  0  0  0  0  0
    5.3931    1.4525    0.4524 C   0  0  0  0  0  0  0  0  0  0  0  0
    4.5254    0.6679    1.4082 C   0  0  0  0  0  0  0  0  0  0  0  0
    3.1605    0.7288    1.0258 O   0  0  0  0  0  0  0  0  0  0  0  0
    2.6962   -0.1608    0.1061 C   0  0  0  0  0  0  0  0  0  0  0  0
    3.4781   -1.0218   -0.6770 C   0  0  0  0  0  0  0  0  0  0  0  0
    2.8863   -1.9030   -1.6094 C   0  0  0  0  0  0  0  0  0  0  0  0
    1.5029   -1.9399   -1.7825 C   0  0  0  0  0  0  0  0  0  0  0  0
    0.7525   -1.0765   -1.0102 C   0  0  0  0  0  0  0  0  0  0  0  0
    1.3255   -0.2104   -0.0936 C   0  0  0  0  0  0  0  0  0  0  0  0
    0.2273    0.5335    0.5345 C   0  0  0  0  0  0  0  0  0  0  0  0
    0.3448    1.3704    1.4098 O   0  0  0  0  0  0  0  0  0  0  0  0
   -0.9323    0.1068   -0.0604 N   0  0  0  0  0  0  0  0  0  0  0  0
   -0.6946   -0.8898   -0.9635 C   0  0  0  0  0  0  0  0  0  0  0  0
   -1.4871   -1.5430   -1.6142 O   0  0  0  0  0  0  0  0  0  0  0  0
   -2.2496    0.5143    0.4044 C   0  0  1  0  0  0  0  0  0  0  0  0
   -3.2428    0.8217   -0.7131 C   0  0  0  0  0  0  0  0  0  0  0  0
   -4.5609    1.2715   -0.1003 C   0  0  0  0  0  0  0  0  0  0  0  0
   -5.1038    0.2346    0.8563 C   0  0  0  0  0  0  0  0  0  0  0  0
   -6.3051    0.1094    1.0744 O   0  0  0  0  0  0  0  0  0  0  0  0
   -4.1797   -0.5324    1.5216 N   0  0  0  0  0  0  0  0  0  0  0  0
   -2.8161   -0.5671    1.3307 C   0  0  0  0  0  0  0  0  0  0  0  0
   -2.1250   -1.3911    1.9269 O   0  0  0  0  0  0  0  0  0  0  0  0
    5.0982    2.5044    0.2983 H   0  0  0  0  0  0  0  0  0  0  0  0
    4.8874   -0.3589    1.5280 H   0  0  0  0  0  0  0  0  0  0  0  0
    4.6128    1.1531    2.3862 H   0  0  0  0  0  0  0  0  0  0  0  0
    4.5633   -1.0389   -0.6025 H   0  0  0  0  0  0  0  0  0  0  0  0
    3.5223   -2.5609   -2.2002 H   0  0  0  0  0  0  0  0  0  0  0  0
    1.0341   -2.6150   -2.4912 H   0  0  0  0  0  0  0  0  0  0  0  0
   -2.1251    1.4102    1.0270 H   0  0  0  0  0  0  0  0  0  0  0  0
   -2.8475    1.6044   -1.3705 H   0  0  0  0  0  0  0  0  0  0  0  0
   -3.4290   -0.0613   -1.3347 H   0  0  0  0  0  0  0  0  0  0  0  0
   -5.2968    1.4288   -0.8962 H   0  0  0  0  0  0  0  0  0  0  0  0
   -4.4399    2.2128    0.4469 H   0  0  0  0  0  0  0  0  0  0  0  0
   -4.5559   -1.2372    2.1414 H   0  0  0  0  0  0  0  0  0  0  0  0
  1  2  2  0
  2  3  1  0
  3  4  1  0
  4  5  1  0
  5  6  2  0
  6  7  1  0
  7  8  2  0
  8  9  1  0
  9 10  2  0
 10 11  1  0
 11 12  2  0
 11 13  1  0
 13 14  1  0
 14 15  2  0
 13 16  1  0
 16 17  1  0
 17 18  1  0
 18 19  1  0
 19 20  2  0
 19 21  1  0
 21 22  1  0
 22 23  2  0
 10  5  1  0
 22 16  1  0
 14  9  1  0
  2 24  1  0
  3 25  1  0
  3 26  1  0
  6 27  1  0
  7 28  1  0
  8 29  1  0
 16 30  1  1
 17 31  1  0
 17 32  1  0
 18 33  1  0
 18 34  1  0
 21 35  1  0
M  END
